*Heading
** Job name: Coupled_Analysis Model name: Torque_Tube_Model
** Generated by: Abaqus/CAE 6.14-2
*Preprint, echo=NO, model=NO, history=NO, contact=NO
**
** PARTS
**
*Part, name=Torque_Tube
*Node
      1, 0.0199999996,           0., -0.100000001
      2, 0.0199999996,           0.,  0.100000001
      3,           0., -0.0199999996,  0.100000001
      4,           0., -0.0199999996, -0.100000001
      5, 0.00999999978,           0.,  0.100000001
      6,           0., -0.00999999978,  0.100000001
      7,           0., -0.00999999978, -0.100000001
      8, 0.00999999978,           0., -0.100000001
      9, -0.0199999996,           0.,  0.100000001
     10, -0.0199999996,           0., -0.100000001
     11, -0.00999999978,           0., -0.100000001
     12, -0.00999999978,           0.,  0.100000001
     13,           0., 0.0199999996,  0.100000001
     14,           0., 0.0199999996, -0.100000001
     15,           0., 0.00999999978,  0.100000001
     16,           0., 0.00999999978, -0.100000001
     17, 0.0199999996,           0., -0.086666666
     18, 0.0199999996,           0., -0.0733333305
     19, 0.0199999996,           0., -0.0599999987
     20, 0.0199999996,           0., -0.0466666669
** ... 1004 like lines cut
*Element, type=C3D8T
  1,  88, 289, 689, 277,   1,  17, 193,  50
  2, 289, 290, 690, 689,  17,  18, 194, 193
  3, 290, 291, 691, 690,  18,  19, 195, 194
  4, 291, 292, 692, 691,  19,  20, 196, 195
  5, 292, 293, 693, 692,  20,  21, 197, 196
  6, 293, 294, 694, 693,  21,  22, 198, 197
  7, 294, 295, 695, 694,  22,  23, 199, 198
  8, 295, 296, 696, 695,  23,  24, 200, 199
  9, 296, 297, 697, 696,  24,  25, 201, 200
 10, 297, 298, 698, 697,  25,  26, 202, 201
 11, 298, 299, 699, 698,  26,  27, 203, 202
 12, 299, 300, 700, 699,  27,  28, 204, 203
 13, 300, 301, 701, 700,  28,  29, 205, 204
 14, 301, 302, 702, 701,  29,  30, 206, 205
 15, 302,  91, 283, 702,  30,   2,  31, 206
 16, 277, 689, 703, 278,  50, 193, 207,  49
 17, 689, 690, 704, 703, 193, 194, 208, 207
 18, 690, 691, 705, 704, 194, 195, 209, 208
 19, 691, 692, 706, 705, 195, 196, 210, 209
 20, 692, 693, 707, 706, 196, 197, 211, 210
** ... 700 like lines cut
*Nset, nset=Torque_Tube_Geometry, generate
    1,  1024,     1
*Elset, elset=Torque_Tube_Geometry, generate
   1,  720,    1
*Nset, nset=Longitudinal_Edges
   1,   2,   3,   4,   5,   6,   7,   8,   9,  10,  11,  12,  13,  14,  15,  16
  17,  18,  19,  20,  21,  22,  23,  24,  25,  26,  27,  28,  29,  30,  34,  35
  36,  37,  38,  39,  40,  41,  42,  43,  44,  45,  46,  47,  51,  52,  53,  54
  55,  56,  57,  58,  59,  60,  61,  62,  63,  64,  68,  69,  70,  71,  72,  73
  74,  75,  76,  77,  78,  79,  80,  81,  93,  94,  95,  96,  97,  98,  99, 100
 101, 102, 103, 104, 105, 106, 113, 114, 115, 116, 117, 118, 119, 120, 121, 122
 123, 124, 125, 126, 140, 141, 142, 143, 144, 145, 146, 147, 148, 149, 150, 151
 152, 153, 160, 161, 162, 163, 164, 165, 166, 167, 168, 169, 170, 171, 172, 173
*Elset, elset=Longitudinal_Edges
   1,   2,   3,   4,   5,   6,   7,   8,   9,  10,  11,  12,  13,  14,  15,  46
  47,  48,  49,  50,  51,  52,  53,  54,  55,  56,  57,  58,  59,  60, 121, 122
 123, 124, 125, 126, 127, 128, 129, 130, 131, 132, 133, 134, 135, 166, 167, 168
 169, 170, 171, 172, 173, 174, 175, 176, 177, 178, 179, 180, 181, 182, 183, 184
 185, 186, 187, 188, 189, 190, 191, 192, 193, 194, 195, 226, 227, 228, 229, 230
 231, 232, 233, 234, 235, 236, 237, 238, 239, 240, 301, 302, 303, 304, 305, 306
 307, 308, 309, 310, 311, 312, 313, 314, 315, 346, 347, 348, 349, 350, 351, 352
 353, 354, 355, 356, 357, 358, 359, 360, 361, 362, 363, 364, 365, 366, 367, 368
 369, 370, 371, 372, 373, 374, 375, 406, 407, 408, 409, 410, 411, 412, 413, 414
 415, 416, 417, 418, 419, 420, 481, 482, 483, 484, 485, 486, 487, 488, 489, 490
 491, 492, 493, 494, 495, 526, 527, 528, 529, 530, 531, 532, 533, 534, 535, 536
 537, 538, 539, 540, 541, 542, 543, 544, 545, 546, 547, 548, 549, 550, 551, 552
 553, 554, 555, 586, 587, 588, 589, 590, 591, 592, 593, 594, 595, 596, 597, 598
 599, 600, 661, 662, 663, 664, 665, 666, 667, 668, 669, 670, 671, 672, 673, 674
 675, 706, 707, 708, 709, 710, 711, 712, 713, 714, 715, 716, 717, 718, 719, 720
*Nset, nset=Radial_Edges
   1,   2,   3,   4,   5,   6,   7,   8,   9,  10,  11,  12,  13,  14,  15,  16
  85,  86,  87,  88,  89,  90,  91,  92, 133, 134, 135, 136, 177, 178, 179, 180
*Elset, elset=Radial_Edges
   1,  15,  46,  60,  61,  75, 106, 120, 121, 135, 166, 180, 181, 195, 226, 240
 241, 255, 286, 300, 301, 315, 346, 360, 361, 375, 406, 420, 421, 435, 466, 480
 481, 495, 526, 540, 541, 555, 586, 600, 601, 615, 646, 660, 661, 675, 706, 720
*Nset, nset=Circumferential_Edges
   1,   2,   3,   4,   5,   6,   7,   8,   9,  10,  11,  12,  13,  14,  15,  16
  31,  32,  33,  48,  49,  50,  65,  66,  67,  82,  83,  84, 107, 108, 109, 110
 111, 112, 127, 128, 129, 130, 131, 132, 137, 138, 139, 154, 155, 156, 157, 158
 159, 174, 175, 176, 181, 182, 183, 184, 185, 186, 187, 188, 189, 190, 191, 192
*Elset, elset=Circumferential_Edges
   1,  15,  16,  30,  31,  45,  46,  60, 121, 135, 136, 150, 151, 165, 166, 180
 181, 195, 196, 210, 211, 225, 226, 240, 301, 315, 316, 330, 331, 345, 346, 360
 361, 375, 376, 390, 391, 405, 406, 420, 481, 495, 496, 510, 511, 525, 526, 540
 541, 555, 556, 570, 571, 585, 586, 600, 661, 675, 676, 690, 691, 705, 706, 720
*Nset, nset=Face_Z_Negative
   1,   4,   7,   8,  10,  11,  14,  16,  48,  49,  50,  82,  83,  84,  85,  86
  87,  88, 107, 108, 109, 127, 128, 129, 135, 136, 154, 155, 156, 174, 175, 176
 177, 178, 181, 182, 183, 187, 188, 189, 277, 278, 279, 280, 281, 282, 435, 436
 437, 438, 439, 440, 553, 554, 555, 556, 557, 558, 683, 684, 685, 686, 687, 688
*Elset, elset=Face_Z_Negative
   1,  16,  31,  46,  61,  76,  91, 106, 121, 136, 151, 166, 195, 210, 225, 240
 255, 270, 285, 300, 315, 330, 345, 360, 361, 376, 391, 406, 421, 436, 451, 466
 481, 496, 511, 526, 555, 570, 585, 600, 615, 630, 645, 660, 675, 690, 705, 720
*Nset, nset=Face_Z_Positive
   2,   3,   5,   6,   9,  12,  13,  15,  31,  32,  33,  65,  66,  67,  89,  90
  91,  92, 110, 111, 112, 130, 131, 132, 133, 134, 137, 138, 139, 157, 158, 159
 179, 180, 184, 185, 186, 190, 191, 192, 283, 284, 285, 286, 287, 288, 429, 430
 431, 432, 433, 434, 559, 560, 561, 562, 563, 564, 677, 678, 679, 680, 681, 682
*Elset, elset=Face_Z_Positive
  15,  30,  45,  60,  75,  90, 105, 120, 135, 150, 165, 180, 181, 196, 211, 226
 241, 256, 271, 286, 301, 316, 331, 346, 375, 390, 405, 420, 435, 450, 465, 480
 495, 510, 525, 540, 541, 556, 571, 586, 601, 616, 631, 646, 661, 676, 691, 706
*Orientation, name=Ori-1, system=CYLINDRICAL
          0.,           0.,         -0.1,           0.,           0.,          0.9
3, 0.
** Section: Solid_Section
*Solid Section, elset=Torque_Tube_Geometry, orientation=Ori-1, material=Shape_Memory_Alloy
,
*End Part
**  
**
** ASSEMBLY
**
*Assembly, name=Assembly
**  
*Instance, name=Torque_Tube-1, part=Torque_Tube
*End Instance
**  
*Node
      1,           0.,  -1.22464679e-18,  0.100000001
*Node
      2,           0.,  -1.22464679e-18, -0.100000001
*Nset, nset=RP_Z_Negative
 2,
*Nset, nset=RP_Z_Positive
 1,
*Surface, type=NODE, name=Torque_Tube-1_Face_Z_Negative_CNS_, internal
Torque_Tube-1.Face_Z_Negative, 1.
*Nset, nset=_T-Torque_Tube-1-Cylindrical_Coordinate_System, internal
RP_Z_Negative, 
*Transform, nset=_T-Torque_Tube-1-Cylindrical_Coordinate_System, type=C
          0.,           0.,         -0.1,           0.,           0.,          0.9
** Constraint: Coupling_RP_Z_Negative
*Coupling, constraint name=Coupling_RP_Z_Negative, ref node=RP_Z_Negative, surface=Torque_Tube-1_Face_Z_Negative_CNS_
*Kinematic
*End Assembly
*Amplitude, name=Temperature_Variation
             0.,            280.,             20.,            400.
** 
** MATERIALS
** 
*Material, name=Shape_Memory_Alloy
*Conductivity
18.,
*Density
6500.,
*Depvar
     32,
*Expansion
0.,
*Specific Heat
470.,
*User Material, constants=38
6500.,    6.62e+10,    2.56e+10,        0.33,        300.,          0.,          0.,     1.5e+08
 9.01772e+06, 8.34255e+06,        470.,        470.,        285.,        310.,        315.,        330.
   0.0482024, 1.29056e-08,       5e+07,          0.,          0.,          0.,     2.5e+07,       5e+07
        0.95,        0.95,        0.95,        0.95,       1e-06,       1e-09,      0.9999,          6.
          0.,          0.,          1.,          0.,          0.,          0.
** 
** BOUNDARY CONDITIONS
** 
** Name: Fixed_End Type: Displacement/Rotation
*Boundary
RP_Z_Negative, 1, 1
RP_Z_Negative, 2, 2
RP_Z_Negative, 3, 3
RP_Z_Negative, 4, 4
RP_Z_Negative, 5, 5
RP_Z_Negative, 6, 6
** 
** PREDEFINED FIELDS
** 
** Name: Initial_Temperature   Type: Temperature
*Initial Conditions, type=TEMPERATURE
Torque_Tube-1.Torque_Tube_Geometry, 280.
** ----------------------------------------------------------------
** 
** STEP: Thermomechanically_Coupled_Step
** 
*Step, name=Thermomechanically_Coupled_Step, nlgeom=NO, inc=1000000
*Coupled Temperature-displacement, creep=none, deltmx=100.
0.1, 20., 1e-08, 0.1
** 
** BOUNDARY CONDITIONS
** 
** Name: Temperature_BC Type: Temperature
*Boundary, amplitude=Temperature_Variation
Torque_Tube-1.Torque_Tube_Geometry, 11, 11, 1.
** 
** OUTPUT REQUESTS
** 
*Restart, write, frequency=0
** 
** FIELD OUTPUT: Field_Output
** 
*Output, field
*Node Output
NT, RF, U
*Element Output, directions=YES
E, HBF, HFL, MISES, S, SDV, TEMP
** 
** HISTORY OUTPUT: History_Output
** 
*Output, history, variable=PRESELECT
*End Step
